Circuit: BRIDGE-T CIRCUIT

Direct Newton iteration for .op point succeeded.

Date: Thu Oct  5 11:57:18 2023
Total elapsed time: 0.016 seconds.

tnom = 27
temp = 27
method = trap
totiter = 3
traniter = 0
tranpoints = 0
accept = 0
rejected = 0
matrix size = 4
fillins = 0
solver = Normal
Avg thread counts: 16.0/0.0/16.0/16.0
Matrix Compiler1: 154 bytes object code size
Matrix Compiler2: 276 bytes object code size
