LTspice 24.0.12 for Windows
Circuit: Alimentatore negativo
Start Time: Sat Nov  2 11:55:00 2024
solver = Normal
Maximum thread count: 16
tnom = 27
temp = 27
method = modified trap
.OP point found by inspection.
Total elapsed time: 0.091 seconds.

