Circuit: Trans4Resistenze

Instance "m1": Length shorter than recommended for a level 1 MOSFET.
Direct Newton iteration for .op point succeeded.

Date: Thu Nov  9 12:51:29 2023
Total elapsed time: 0.024 seconds.

tnom = 27
temp = 27
method = trap
totiter = 8
traniter = 0
tranpoints = 0
accept = 0
rejected = 0
matrix size = 8
fillins = 0
solver = Normal
Avg thread counts: 16.0/0.0/16.0/12.3
Matrix Compiler1:      20 opcodes
Matrix Compiler2: 594 bytes object code size
