Circuit: Partitore

Error on line 3 : r1 1 2 1 k
	 Unknown parameter "k"
Direct Newton iteration for .op point succeeded.

Date: Thu Oct 12 12:30:45 2023
Total elapsed time: 0.033 seconds.

tnom = 27
temp = 27
method = trap
totiter = 3
traniter = 0
tranpoints = 0
accept = 0
rejected = 0
matrix size = 3
fillins = 0
solver = Normal
Avg thread counts: 16.0/0.0/16.0/16.0
Matrix Compiler1: 104 bytes object code size
Matrix Compiler2: 163 bytes object code size
