Circuit: Trans4Resistenze

Instance "m1": Length shorter than recommended for a level 1 MOSFET.
Direct Newton iteration for .op point succeeded.

Date: Thu Nov  9 12:41:53 2023
Total elapsed time: 0.118 seconds.

tnom = 27
temp = 27
method = modified trap
totiter = 2096
traniter = 2088
tranpoints = 1042
accept = 1042
rejected = 0
matrix size = 8
fillins = 0
solver = Normal
Avg thread counts: 3.8/6.7/6.7/3.8
Matrix Compiler1:      20 opcodes  0.2/[0.1]/0.2
Matrix Compiler2: off  [0.1]/0.2/0.1

